                                   MODFLOW 6
                U.S. GEOLOGICAL SURVEY MODULAR HYDROLOGIC MODEL
                            VERSION 6.2.2 07/30/2021

   MODFLOW 6 compiled Jul 31 2021 14:59:11 with IFORT compiler (ver. 20.21.2)

This software has been approved for release by the U.S. Geological 
Survey (USGS). Although the software has been subjected to rigorous 
review, the USGS reserves the right to update the software as needed 
pursuant to further analysis and review. No warranty, expressed or 
implied, is made by the USGS or the U.S. Government as to the 
functionality of the software and related material nor shall the 
fact of release constitute any such warranty. Furthermore, the 
software is released on condition that neither the USGS nor the U.S. 
Government shall be held liable for any damages resulting from its 
authorized or unauthorized use. Also refer to the USGS Water 
Resources Software User Rights Notice for complete use, copyright, 
and distribution information.

 
 Run start date and time (yyyy/mm/dd hh:mm:ss): 2022/10/28 12:42:11
 
 Writing simulation list file: mfsim.lst
 Using Simulation name file: mfsim.nam
 
    Solving:  Stress period:     1    Time step:     1
    Solving:  Stress period:     2    Time step:     1
    Solving:  Stress period:     3    Time step:     1
    Solving:  Stress period:     4    Time step:     1
    Solving:  Stress period:     5    Time step:     1
    Solving:  Stress period:     6    Time step:     1
    Solving:  Stress period:     7    Time step:     1
    Solving:  Stress period:     8    Time step:     1
    Solving:  Stress period:     9    Time step:     1
    Solving:  Stress period:    10    Time step:     1
    Solving:  Stress period:    11    Time step:     1
    Solving:  Stress period:    12    Time step:     1
    Solving:  Stress period:    13    Time step:     1
    Solving:  Stress period:    14    Time step:     1
    Solving:  Stress period:    15    Time step:     1
    Solving:  Stress period:    16    Time step:     1
    Solving:  Stress period:    17    Time step:     1
    Solving:  Stress period:    18    Time step:     1
    Solving:  Stress period:    19    Time step:     1
    Solving:  Stress period:    20    Time step:     1
    Solving:  Stress period:    21    Time step:     1
    Solving:  Stress period:    22    Time step:     1
    Solving:  Stress period:    23    Time step:     1
    Solving:  Stress period:    24    Time step:     1
    Solving:  Stress period:    25    Time step:     1
    Solving:  Stress period:    26    Time step:     1
    Solving:  Stress period:    27    Time step:     1
    Solving:  Stress period:    28    Time step:     1
    Solving:  Stress period:    29    Time step:     1
    Solving:  Stress period:    30    Time step:     1
    Solving:  Stress period:    31    Time step:     1
    Solving:  Stress period:    32    Time step:     1
    Solving:  Stress period:    33    Time step:     1
    Solving:  Stress period:    34    Time step:     1
    Solving:  Stress period:    35    Time step:     1
    Solving:  Stress period:    36    Time step:     1
    Solving:  Stress period:    37    Time step:     1
    Solving:  Stress period:    38    Time step:     1
    Solving:  Stress period:    39    Time step:     1
    Solving:  Stress period:    40    Time step:     1
    Solving:  Stress period:    41    Time step:     1
    Solving:  Stress period:    42    Time step:     1
    Solving:  Stress period:    43    Time step:     1
    Solving:  Stress period:    44    Time step:     1
    Solving:  Stress period:    45    Time step:     1
    Solving:  Stress period:    46    Time step:     1
    Solving:  Stress period:    47    Time step:     1
    Solving:  Stress period:    48    Time step:     1
    Solving:  Stress period:    49    Time step:     1
    Solving:  Stress period:    50    Time step:     1
    Solving:  Stress period:    51    Time step:     1
    Solving:  Stress period:    52    Time step:     1
    Solving:  Stress period:    53    Time step:     1
    Solving:  Stress period:    54    Time step:     1
    Solving:  Stress period:    55    Time step:     1
    Solving:  Stress period:    56    Time step:     1
    Solving:  Stress period:    57    Time step:     1
    Solving:  Stress period:    58    Time step:     1
    Solving:  Stress period:    59    Time step:     1
    Solving:  Stress period:    60    Time step:     1
    Solving:  Stress period:    61    Time step:     1
    Solving:  Stress period:    62    Time step:     1
    Solving:  Stress period:    63    Time step:     1
    Solving:  Stress period:    64    Time step:     1
    Solving:  Stress period:    65    Time step:     1
    Solving:  Stress period:    66    Time step:     1
    Solving:  Stress period:    67    Time step:     1
    Solving:  Stress period:    68    Time step:     1
    Solving:  Stress period:    69    Time step:     1
    Solving:  Stress period:    70    Time step:     1
    Solving:  Stress period:    71    Time step:     1
    Solving:  Stress period:    72    Time step:     1
    Solving:  Stress period:    73    Time step:     1
    Solving:  Stress period:    74    Time step:     1
    Solving:  Stress period:    75    Time step:     1
    Solving:  Stress period:    76    Time step:     1
    Solving:  Stress period:    77    Time step:     1
    Solving:  Stress period:    78    Time step:     1
    Solving:  Stress period:    79    Time step:     1
    Solving:  Stress period:    80    Time step:     1
    Solving:  Stress period:    81    Time step:     1
    Solving:  Stress period:    82    Time step:     1
    Solving:  Stress period:    83    Time step:     1
    Solving:  Stress period:    84    Time step:     1
    Solving:  Stress period:    85    Time step:     1
    Solving:  Stress period:    86    Time step:     1
    Solving:  Stress period:    87    Time step:     1
    Solving:  Stress period:    88    Time step:     1
    Solving:  Stress period:    89    Time step:     1
    Solving:  Stress period:    90    Time step:     1
    Solving:  Stress period:    91    Time step:     1
    Solving:  Stress period:    92    Time step:     1
    Solving:  Stress period:    93    Time step:     1
    Solving:  Stress period:    94    Time step:     1
    Solving:  Stress period:    95    Time step:     1
    Solving:  Stress period:    96    Time step:     1
    Solving:  Stress period:    97    Time step:     1
    Solving:  Stress period:    98    Time step:     1
    Solving:  Stress period:    99    Time step:     1
    Solving:  Stress period:   100    Time step:     1
    Solving:  Stress period:   101    Time step:     1
    Solving:  Stress period:   102    Time step:     1
    Solving:  Stress period:   103    Time step:     1
    Solving:  Stress period:   104    Time step:     1
    Solving:  Stress period:   105    Time step:     1
    Solving:  Stress period:   106    Time step:     1
    Solving:  Stress period:   107    Time step:     1
    Solving:  Stress period:   108    Time step:     1
    Solving:  Stress period:   109    Time step:     1
    Solving:  Stress period:   110    Time step:     1
    Solving:  Stress period:   111    Time step:     1
    Solving:  Stress period:   112    Time step:     1
    Solving:  Stress period:   113    Time step:     1
    Solving:  Stress period:   114    Time step:     1
    Solving:  Stress period:   115    Time step:     1
    Solving:  Stress period:   116    Time step:     1
    Solving:  Stress period:   117    Time step:     1
    Solving:  Stress period:   118    Time step:     1
    Solving:  Stress period:   119    Time step:     1
    Solving:  Stress period:   120    Time step:     1
    Solving:  Stress period:   121    Time step:     1
    Solving:  Stress period:   122    Time step:     1
    Solving:  Stress period:   123    Time step:     1
    Solving:  Stress period:   124    Time step:     1
    Solving:  Stress period:   125    Time step:     1
    Solving:  Stress period:   126    Time step:     1
    Solving:  Stress period:   127    Time step:     1
    Solving:  Stress period:   128    Time step:     1
    Solving:  Stress period:   129    Time step:     1
    Solving:  Stress period:   130    Time step:     1
    Solving:  Stress period:   131    Time step:     1
    Solving:  Stress period:   132    Time step:     1
    Solving:  Stress period:   133    Time step:     1
    Solving:  Stress period:   134    Time step:     1
    Solving:  Stress period:   135    Time step:     1
    Solving:  Stress period:   136    Time step:     1
    Solving:  Stress period:   137    Time step:     1
    Solving:  Stress period:   138    Time step:     1
    Solving:  Stress period:   139    Time step:     1
    Solving:  Stress period:   140    Time step:     1
    Solving:  Stress period:   141    Time step:     1
    Solving:  Stress period:   142    Time step:     1
    Solving:  Stress period:   143    Time step:     1
    Solving:  Stress period:   144    Time step:     1
    Solving:  Stress period:   145    Time step:     1
    Solving:  Stress period:   146    Time step:     1
    Solving:  Stress period:   147    Time step:     1
    Solving:  Stress period:   148    Time step:     1
    Solving:  Stress period:   149    Time step:     1
    Solving:  Stress period:   150    Time step:     1
    Solving:  Stress period:   151    Time step:     1
    Solving:  Stress period:   152    Time step:     1
    Solving:  Stress period:   153    Time step:     1
    Solving:  Stress period:   154    Time step:     1
    Solving:  Stress period:   155    Time step:     1
    Solving:  Stress period:   156    Time step:     1
    Solving:  Stress period:   157    Time step:     1
    Solving:  Stress period:   158    Time step:     1
    Solving:  Stress period:   159    Time step:     1
    Solving:  Stress period:   160    Time step:     1
    Solving:  Stress period:   161    Time step:     1
    Solving:  Stress period:   162    Time step:     1
    Solving:  Stress period:   163    Time step:     1
    Solving:  Stress period:   164    Time step:     1
    Solving:  Stress period:   165    Time step:     1
    Solving:  Stress period:   166    Time step:     1
    Solving:  Stress period:   167    Time step:     1
    Solving:  Stress period:   168    Time step:     1
    Solving:  Stress period:   169    Time step:     1
    Solving:  Stress period:   170    Time step:     1
    Solving:  Stress period:   171    Time step:     1
    Solving:  Stress period:   172    Time step:     1
    Solving:  Stress period:   173    Time step:     1
    Solving:  Stress period:   174    Time step:     1
    Solving:  Stress period:   175    Time step:     1
    Solving:  Stress period:   176    Time step:     1
    Solving:  Stress period:   177    Time step:     1
    Solving:  Stress period:   178    Time step:     1
    Solving:  Stress period:   179    Time step:     1
    Solving:  Stress period:   180    Time step:     1
    Solving:  Stress period:   181    Time step:     1
    Solving:  Stress period:   182    Time step:     1
    Solving:  Stress period:   183    Time step:     1
    Solving:  Stress period:   184    Time step:     1
    Solving:  Stress period:   185    Time step:     1
    Solving:  Stress period:   186    Time step:     1
    Solving:  Stress period:   187    Time step:     1
    Solving:  Stress period:   188    Time step:     1
    Solving:  Stress period:   189    Time step:     1
    Solving:  Stress period:   190    Time step:     1
    Solving:  Stress period:   191    Time step:     1
    Solving:  Stress period:   192    Time step:     1
    Solving:  Stress period:   193    Time step:     1
    Solving:  Stress period:   194    Time step:     1
    Solving:  Stress period:   195    Time step:     1
    Solving:  Stress period:   196    Time step:     1
    Solving:  Stress period:   197    Time step:     1
    Solving:  Stress period:   198    Time step:     1
    Solving:  Stress period:   199    Time step:     1
    Solving:  Stress period:   200    Time step:     1
    Solving:  Stress period:   201    Time step:     1
    Solving:  Stress period:   202    Time step:     1
    Solving:  Stress period:   203    Time step:     1
    Solving:  Stress period:   204    Time step:     1
    Solving:  Stress period:   205    Time step:     1
    Solving:  Stress period:   206    Time step:     1
    Solving:  Stress period:   207    Time step:     1
    Solving:  Stress period:   208    Time step:     1
    Solving:  Stress period:   209    Time step:     1
    Solving:  Stress period:   210    Time step:     1
    Solving:  Stress period:   211    Time step:     1
    Solving:  Stress period:   212    Time step:     1
    Solving:  Stress period:   213    Time step:     1
    Solving:  Stress period:   214    Time step:     1
    Solving:  Stress period:   215    Time step:     1
    Solving:  Stress period:   216    Time step:     1
    Solving:  Stress period:   217    Time step:     1
    Solving:  Stress period:   218    Time step:     1
    Solving:  Stress period:   219    Time step:     1
    Solving:  Stress period:   220    Time step:     1
    Solving:  Stress period:   221    Time step:     1
    Solving:  Stress period:   222    Time step:     1
    Solving:  Stress period:   223    Time step:     1
    Solving:  Stress period:   224    Time step:     1
    Solving:  Stress period:   225    Time step:     1
    Solving:  Stress period:   226    Time step:     1
    Solving:  Stress period:   227    Time step:     1
    Solving:  Stress period:   228    Time step:     1
    Solving:  Stress period:   229    Time step:     1
    Solving:  Stress period:   230    Time step:     1
    Solving:  Stress period:   231    Time step:     1
    Solving:  Stress period:   232    Time step:     1
    Solving:  Stress period:   233    Time step:     1
    Solving:  Stress period:   234    Time step:     1
    Solving:  Stress period:   235    Time step:     1
    Solving:  Stress period:   236    Time step:     1
    Solving:  Stress period:   237    Time step:     1
    Solving:  Stress period:   238    Time step:     1
    Solving:  Stress period:   239    Time step:     1
    Solving:  Stress period:   240    Time step:     1
    Solving:  Stress period:   241    Time step:     1
    Solving:  Stress period:   242    Time step:     1
    Solving:  Stress period:   243    Time step:     1
    Solving:  Stress period:   244    Time step:     1
    Solving:  Stress period:   245    Time step:     1
    Solving:  Stress period:   246    Time step:     1
    Solving:  Stress period:   247    Time step:     1
    Solving:  Stress period:   248    Time step:     1
    Solving:  Stress period:   249    Time step:     1
    Solving:  Stress period:   250    Time step:     1
    Solving:  Stress period:   251    Time step:     1
    Solving:  Stress period:   252    Time step:     1
    Solving:  Stress period:   253    Time step:     1
    Solving:  Stress period:   254    Time step:     1
    Solving:  Stress period:   255    Time step:     1
    Solving:  Stress period:   256    Time step:     1
    Solving:  Stress period:   257    Time step:     1
    Solving:  Stress period:   258    Time step:     1
    Solving:  Stress period:   259    Time step:     1
    Solving:  Stress period:   260    Time step:     1
    Solving:  Stress period:   261    Time step:     1
    Solving:  Stress period:   262    Time step:     1
    Solving:  Stress period:   263    Time step:     1
    Solving:  Stress period:   264    Time step:     1
    Solving:  Stress period:   265    Time step:     1
    Solving:  Stress period:   266    Time step:     1
    Solving:  Stress period:   267    Time step:     1
    Solving:  Stress period:   268    Time step:     1
    Solving:  Stress period:   269    Time step:     1
    Solving:  Stress period:   270    Time step:     1
    Solving:  Stress period:   271    Time step:     1
    Solving:  Stress period:   272    Time step:     1
    Solving:  Stress period:   273    Time step:     1
    Solving:  Stress period:   274    Time step:     1
    Solving:  Stress period:   275    Time step:     1
    Solving:  Stress period:   276    Time step:     1
    Solving:  Stress period:   277    Time step:     1
    Solving:  Stress period:   278    Time step:     1
    Solving:  Stress period:   279    Time step:     1
    Solving:  Stress period:   280    Time step:     1
    Solving:  Stress period:   281    Time step:     1
    Solving:  Stress period:   282    Time step:     1
    Solving:  Stress period:   283    Time step:     1
    Solving:  Stress period:   284    Time step:     1
    Solving:  Stress period:   285    Time step:     1
    Solving:  Stress period:   286    Time step:     1
    Solving:  Stress period:   287    Time step:     1
    Solving:  Stress period:   288    Time step:     1
    Solving:  Stress period:   289    Time step:     1
    Solving:  Stress period:   290    Time step:     1
    Solving:  Stress period:   291    Time step:     1
    Solving:  Stress period:   292    Time step:     1
    Solving:  Stress period:   293    Time step:     1
    Solving:  Stress period:   294    Time step:     1
    Solving:  Stress period:   295    Time step:     1
    Solving:  Stress period:   296    Time step:     1
    Solving:  Stress period:   297    Time step:     1
    Solving:  Stress period:   298    Time step:     1
    Solving:  Stress period:   299    Time step:     1
    Solving:  Stress period:   300    Time step:     1
    Solving:  Stress period:   301    Time step:     1
    Solving:  Stress period:   302    Time step:     1
    Solving:  Stress period:   303    Time step:     1
    Solving:  Stress period:   304    Time step:     1
    Solving:  Stress period:   305    Time step:     1
    Solving:  Stress period:   306    Time step:     1
    Solving:  Stress period:   307    Time step:     1
    Solving:  Stress period:   308    Time step:     1
    Solving:  Stress period:   309    Time step:     1
    Solving:  Stress period:   310    Time step:     1
    Solving:  Stress period:   311    Time step:     1
    Solving:  Stress period:   312    Time step:     1
    Solving:  Stress period:   313    Time step:     1
    Solving:  Stress period:   314    Time step:     1
    Solving:  Stress period:   315    Time step:     1
    Solving:  Stress period:   316    Time step:     1
    Solving:  Stress period:   317    Time step:     1
    Solving:  Stress period:   318    Time step:     1
    Solving:  Stress period:   319    Time step:     1
    Solving:  Stress period:   320    Time step:     1
    Solving:  Stress period:   321    Time step:     1
    Solving:  Stress period:   322    Time step:     1
    Solving:  Stress period:   323    Time step:     1
    Solving:  Stress period:   324    Time step:     1
    Solving:  Stress period:   325    Time step:     1
    Solving:  Stress period:   326    Time step:     1
    Solving:  Stress period:   327    Time step:     1
    Solving:  Stress period:   328    Time step:     1
    Solving:  Stress period:   329    Time step:     1
    Solving:  Stress period:   330    Time step:     1
    Solving:  Stress period:   331    Time step:     1
    Solving:  Stress period:   332    Time step:     1
    Solving:  Stress period:   333    Time step:     1
    Solving:  Stress period:   334    Time step:     1
    Solving:  Stress period:   335    Time step:     1
    Solving:  Stress period:   336    Time step:     1
    Solving:  Stress period:   337    Time step:     1
    Solving:  Stress period:   338    Time step:     1
    Solving:  Stress period:   339    Time step:     1
    Solving:  Stress period:   340    Time step:     1
    Solving:  Stress period:   341    Time step:     1
    Solving:  Stress period:   342    Time step:     1
    Solving:  Stress period:   343    Time step:     1
    Solving:  Stress period:   344    Time step:     1
    Solving:  Stress period:   345    Time step:     1
    Solving:  Stress period:   346    Time step:     1
    Solving:  Stress period:   347    Time step:     1
    Solving:  Stress period:   348    Time step:     1
    Solving:  Stress period:   349    Time step:     1
    Solving:  Stress period:   350    Time step:     1
    Solving:  Stress period:   351    Time step:     1
    Solving:  Stress period:   352    Time step:     1
    Solving:  Stress period:   353    Time step:     1
    Solving:  Stress period:   354    Time step:     1
    Solving:  Stress period:   355    Time step:     1
    Solving:  Stress period:   356    Time step:     1
    Solving:  Stress period:   357    Time step:     1
    Solving:  Stress period:   358    Time step:     1
    Solving:  Stress period:   359    Time step:     1
    Solving:  Stress period:   360    Time step:     1
    Solving:  Stress period:   361    Time step:     1
    Solving:  Stress period:   362    Time step:     1
    Solving:  Stress period:   363    Time step:     1
    Solving:  Stress period:   364    Time step:     1
    Solving:  Stress period:   365    Time step:     1
    Solving:  Stress period:   366    Time step:     1
    Solving:  Stress period:   367    Time step:     1
    Solving:  Stress period:   368    Time step:     1
    Solving:  Stress period:   369    Time step:     1
    Solving:  Stress period:   370    Time step:     1
    Solving:  Stress period:   371    Time step:     1
    Solving:  Stress period:   372    Time step:     1
    Solving:  Stress period:   373    Time step:     1
    Solving:  Stress period:   374    Time step:     1
    Solving:  Stress period:   375    Time step:     1
    Solving:  Stress period:   376    Time step:     1
    Solving:  Stress period:   377    Time step:     1
    Solving:  Stress period:   378    Time step:     1
    Solving:  Stress period:   379    Time step:     1
    Solving:  Stress period:   380    Time step:     1
    Solving:  Stress period:   381    Time step:     1
    Solving:  Stress period:   382    Time step:     1
    Solving:  Stress period:   383    Time step:     1
    Solving:  Stress period:   384    Time step:     1
    Solving:  Stress period:   385    Time step:     1
    Solving:  Stress period:   386    Time step:     1
    Solving:  Stress period:   387    Time step:     1
    Solving:  Stress period:   388    Time step:     1
    Solving:  Stress period:   389    Time step:     1
    Solving:  Stress period:   390    Time step:     1
    Solving:  Stress period:   391    Time step:     1
    Solving:  Stress period:   392    Time step:     1
    Solving:  Stress period:   393    Time step:     1
    Solving:  Stress period:   394    Time step:     1
    Solving:  Stress period:   395    Time step:     1
    Solving:  Stress period:   396    Time step:     1
    Solving:  Stress period:   397    Time step:     1
    Solving:  Stress period:   398    Time step:     1
    Solving:  Stress period:   399    Time step:     1
    Solving:  Stress period:   400    Time step:     1
    Solving:  Stress period:   401    Time step:     1
    Solving:  Stress period:   402    Time step:     1
    Solving:  Stress period:   403    Time step:     1
    Solving:  Stress period:   404    Time step:     1
    Solving:  Stress period:   405    Time step:     1
    Solving:  Stress period:   406    Time step:     1
    Solving:  Stress period:   407    Time step:     1
    Solving:  Stress period:   408    Time step:     1
    Solving:  Stress period:   409    Time step:     1
    Solving:  Stress period:   410    Time step:     1
    Solving:  Stress period:   411    Time step:     1
    Solving:  Stress period:   412    Time step:     1
    Solving:  Stress period:   413    Time step:     1
    Solving:  Stress period:   414    Time step:     1
    Solving:  Stress period:   415    Time step:     1
    Solving:  Stress period:   416    Time step:     1
    Solving:  Stress period:   417    Time step:     1
    Solving:  Stress period:   418    Time step:     1
    Solving:  Stress period:   419    Time step:     1
    Solving:  Stress period:   420    Time step:     1
    Solving:  Stress period:   421    Time step:     1
    Solving:  Stress period:   422    Time step:     1
    Solving:  Stress period:   423    Time step:     1
    Solving:  Stress period:   424    Time step:     1
    Solving:  Stress period:   425    Time step:     1
    Solving:  Stress period:   426    Time step:     1
    Solving:  Stress period:   427    Time step:     1
    Solving:  Stress period:   428    Time step:     1
    Solving:  Stress period:   429    Time step:     1
    Solving:  Stress period:   430    Time step:     1
    Solving:  Stress period:   431    Time step:     1
    Solving:  Stress period:   432    Time step:     1
    Solving:  Stress period:   433    Time step:     1
    Solving:  Stress period:   434    Time step:     1
    Solving:  Stress period:   435    Time step:     1
    Solving:  Stress period:   436    Time step:     1
    Solving:  Stress period:   437    Time step:     1
    Solving:  Stress period:   438    Time step:     1
    Solving:  Stress period:   439    Time step:     1
    Solving:  Stress period:   440    Time step:     1
    Solving:  Stress period:   441    Time step:     1
    Solving:  Stress period:   442    Time step:     1
    Solving:  Stress period:   443    Time step:     1
    Solving:  Stress period:   444    Time step:     1
    Solving:  Stress period:   445    Time step:     1
    Solving:  Stress period:   446    Time step:     1
    Solving:  Stress period:   447    Time step:     1
    Solving:  Stress period:   448    Time step:     1
    Solving:  Stress period:   449    Time step:     1
    Solving:  Stress period:   450    Time step:     1
    Solving:  Stress period:   451    Time step:     1
    Solving:  Stress period:   452    Time step:     1
    Solving:  Stress period:   453    Time step:     1
    Solving:  Stress period:   454    Time step:     1
    Solving:  Stress period:   455    Time step:     1
    Solving:  Stress period:   456    Time step:     1
    Solving:  Stress period:   457    Time step:     1
    Solving:  Stress period:   458    Time step:     1
    Solving:  Stress period:   459    Time step:     1
    Solving:  Stress period:   460    Time step:     1
    Solving:  Stress period:   461    Time step:     1
    Solving:  Stress period:   462    Time step:     1
    Solving:  Stress period:   463    Time step:     1
    Solving:  Stress period:   464    Time step:     1
    Solving:  Stress period:   465    Time step:     1
    Solving:  Stress period:   466    Time step:     1
    Solving:  Stress period:   467    Time step:     1
    Solving:  Stress period:   468    Time step:     1
    Solving:  Stress period:   469    Time step:     1
    Solving:  Stress period:   470    Time step:     1
    Solving:  Stress period:   471    Time step:     1
    Solving:  Stress period:   472    Time step:     1
    Solving:  Stress period:   473    Time step:     1
    Solving:  Stress period:   474    Time step:     1
    Solving:  Stress period:   475    Time step:     1
    Solving:  Stress period:   476    Time step:     1
    Solving:  Stress period:   477    Time step:     1
    Solving:  Stress period:   478    Time step:     1
    Solving:  Stress period:   479    Time step:     1
    Solving:  Stress period:   480    Time step:     1
    Solving:  Stress period:   481    Time step:     1
    Solving:  Stress period:   482    Time step:     1
    Solving:  Stress period:   483    Time step:     1
    Solving:  Stress period:   484    Time step:     1
    Solving:  Stress period:   485    Time step:     1
    Solving:  Stress period:   486    Time step:     1
    Solving:  Stress period:   487    Time step:     1
    Solving:  Stress period:   488    Time step:     1
    Solving:  Stress period:   489    Time step:     1
    Solving:  Stress period:   490    Time step:     1
    Solving:  Stress period:   491    Time step:     1
    Solving:  Stress period:   492    Time step:     1
    Solving:  Stress period:   493    Time step:     1
    Solving:  Stress period:   494    Time step:     1
    Solving:  Stress period:   495    Time step:     1
    Solving:  Stress period:   496    Time step:     1
    Solving:  Stress period:   497    Time step:     1
    Solving:  Stress period:   498    Time step:     1
    Solving:  Stress period:   499    Time step:     1
    Solving:  Stress period:   500    Time step:     1
    Solving:  Stress period:   501    Time step:     1
    Solving:  Stress period:   502    Time step:     1
    Solving:  Stress period:   503    Time step:     1
    Solving:  Stress period:   504    Time step:     1
    Solving:  Stress period:   505    Time step:     1
    Solving:  Stress period:   506    Time step:     1
    Solving:  Stress period:   507    Time step:     1
    Solving:  Stress period:   508    Time step:     1
    Solving:  Stress period:   509    Time step:     1
    Solving:  Stress period:   510    Time step:     1
    Solving:  Stress period:   511    Time step:     1
    Solving:  Stress period:   512    Time step:     1
    Solving:  Stress period:   513    Time step:     1
    Solving:  Stress period:   514    Time step:     1
    Solving:  Stress period:   515    Time step:     1
    Solving:  Stress period:   516    Time step:     1
    Solving:  Stress period:   517    Time step:     1
    Solving:  Stress period:   518    Time step:     1
    Solving:  Stress period:   519    Time step:     1
    Solving:  Stress period:   520    Time step:     1
    Solving:  Stress period:   521    Time step:     1
    Solving:  Stress period:   522    Time step:     1
    Solving:  Stress period:   523    Time step:     1
    Solving:  Stress period:   524    Time step:     1
    Solving:  Stress period:   525    Time step:     1
    Solving:  Stress period:   526    Time step:     1
    Solving:  Stress period:   527    Time step:     1
    Solving:  Stress period:   528    Time step:     1
    Solving:  Stress period:   529    Time step:     1
    Solving:  Stress period:   530    Time step:     1
    Solving:  Stress period:   531    Time step:     1
    Solving:  Stress period:   532    Time step:     1
    Solving:  Stress period:   533    Time step:     1
    Solving:  Stress period:   534    Time step:     1
    Solving:  Stress period:   535    Time step:     1
    Solving:  Stress period:   536    Time step:     1
    Solving:  Stress period:   537    Time step:     1
    Solving:  Stress period:   538    Time step:     1
    Solving:  Stress period:   539    Time step:     1
    Solving:  Stress period:   540    Time step:     1
    Solving:  Stress period:   541    Time step:     1
    Solving:  Stress period:   542    Time step:     1
    Solving:  Stress period:   543    Time step:     1
    Solving:  Stress period:   544    Time step:     1
    Solving:  Stress period:   545    Time step:     1
    Solving:  Stress period:   546    Time step:     1
    Solving:  Stress period:   547    Time step:     1
    Solving:  Stress period:   548    Time step:     1
    Solving:  Stress period:   549    Time step:     1
    Solving:  Stress period:   550    Time step:     1
    Solving:  Stress period:   551    Time step:     1
    Solving:  Stress period:   552    Time step:     1
    Solving:  Stress period:   553    Time step:     1
    Solving:  Stress period:   554    Time step:     1
    Solving:  Stress period:   555    Time step:     1
    Solving:  Stress period:   556    Time step:     1
    Solving:  Stress period:   557    Time step:     1
    Solving:  Stress period:   558    Time step:     1
    Solving:  Stress period:   559    Time step:     1
    Solving:  Stress period:   560    Time step:     1
    Solving:  Stress period:   561    Time step:     1
    Solving:  Stress period:   562    Time step:     1
    Solving:  Stress period:   563    Time step:     1
    Solving:  Stress period:   564    Time step:     1
    Solving:  Stress period:   565    Time step:     1
    Solving:  Stress period:   566    Time step:     1
    Solving:  Stress period:   567    Time step:     1
    Solving:  Stress period:   568    Time step:     1
    Solving:  Stress period:   569    Time step:     1
    Solving:  Stress period:   570    Time step:     1
    Solving:  Stress period:   571    Time step:     1
    Solving:  Stress period:   572    Time step:     1
    Solving:  Stress period:   573    Time step:     1
    Solving:  Stress period:   574    Time step:     1
    Solving:  Stress period:   575    Time step:     1
    Solving:  Stress period:   576    Time step:     1
    Solving:  Stress period:   577    Time step:     1
    Solving:  Stress period:   578    Time step:     1
    Solving:  Stress period:   579    Time step:     1
    Solving:  Stress period:   580    Time step:     1
    Solving:  Stress period:   581    Time step:     1
    Solving:  Stress period:   582    Time step:     1
    Solving:  Stress period:   583    Time step:     1
    Solving:  Stress period:   584    Time step:     1
    Solving:  Stress period:   585    Time step:     1
    Solving:  Stress period:   586    Time step:     1
    Solving:  Stress period:   587    Time step:     1
    Solving:  Stress period:   588    Time step:     1
    Solving:  Stress period:   589    Time step:     1
    Solving:  Stress period:   590    Time step:     1
    Solving:  Stress period:   591    Time step:     1
    Solving:  Stress period:   592    Time step:     1
    Solving:  Stress period:   593    Time step:     1
    Solving:  Stress period:   594    Time step:     1
    Solving:  Stress period:   595    Time step:     1
    Solving:  Stress period:   596    Time step:     1
    Solving:  Stress period:   597    Time step:     1
    Solving:  Stress period:   598    Time step:     1
    Solving:  Stress period:   599    Time step:     1
    Solving:  Stress period:   600    Time step:     1
    Solving:  Stress period:   601    Time step:     1
    Solving:  Stress period:   602    Time step:     1
    Solving:  Stress period:   603    Time step:     1
    Solving:  Stress period:   604    Time step:     1
    Solving:  Stress period:   605    Time step:     1
    Solving:  Stress period:   606    Time step:     1
    Solving:  Stress period:   607    Time step:     1
    Solving:  Stress period:   608    Time step:     1
    Solving:  Stress period:   609    Time step:     1
    Solving:  Stress period:   610    Time step:     1
    Solving:  Stress period:   611    Time step:     1
    Solving:  Stress period:   612    Time step:     1
    Solving:  Stress period:   613    Time step:     1
    Solving:  Stress period:   614    Time step:     1
    Solving:  Stress period:   615    Time step:     1
    Solving:  Stress period:   616    Time step:     1
    Solving:  Stress period:   617    Time step:     1
    Solving:  Stress period:   618    Time step:     1
    Solving:  Stress period:   619    Time step:     1
    Solving:  Stress period:   620    Time step:     1
    Solving:  Stress period:   621    Time step:     1
    Solving:  Stress period:   622    Time step:     1
    Solving:  Stress period:   623    Time step:     1
    Solving:  Stress period:   624    Time step:     1
    Solving:  Stress period:   625    Time step:     1
    Solving:  Stress period:   626    Time step:     1
    Solving:  Stress period:   627    Time step:     1
    Solving:  Stress period:   628    Time step:     1
    Solving:  Stress period:   629    Time step:     1
    Solving:  Stress period:   630    Time step:     1
    Solving:  Stress period:   631    Time step:     1
    Solving:  Stress period:   632    Time step:     1
    Solving:  Stress period:   633    Time step:     1
    Solving:  Stress period:   634    Time step:     1
    Solving:  Stress period:   635    Time step:     1
    Solving:  Stress period:   636    Time step:     1
    Solving:  Stress period:   637    Time step:     1
    Solving:  Stress period:   638    Time step:     1
    Solving:  Stress period:   639    Time step:     1
    Solving:  Stress period:   640    Time step:     1
    Solving:  Stress period:   641    Time step:     1
    Solving:  Stress period:   642    Time step:     1
    Solving:  Stress period:   643    Time step:     1
    Solving:  Stress period:   644    Time step:     1
    Solving:  Stress period:   645    Time step:     1
    Solving:  Stress period:   646    Time step:     1
    Solving:  Stress period:   647    Time step:     1
    Solving:  Stress period:   648    Time step:     1
    Solving:  Stress period:   649    Time step:     1
    Solving:  Stress period:   650    Time step:     1
    Solving:  Stress period:   651    Time step:     1
    Solving:  Stress period:   652    Time step:     1
    Solving:  Stress period:   653    Time step:     1
    Solving:  Stress period:   654    Time step:     1
    Solving:  Stress period:   655    Time step:     1
    Solving:  Stress period:   656    Time step:     1
    Solving:  Stress period:   657    Time step:     1
    Solving:  Stress period:   658    Time step:     1
    Solving:  Stress period:   659    Time step:     1
    Solving:  Stress period:   660    Time step:     1
    Solving:  Stress period:   661    Time step:     1
    Solving:  Stress period:   662    Time step:     1
    Solving:  Stress period:   663    Time step:     1
    Solving:  Stress period:   664    Time step:     1
    Solving:  Stress period:   665    Time step:     1
    Solving:  Stress period:   666    Time step:     1
    Solving:  Stress period:   667    Time step:     1
    Solving:  Stress period:   668    Time step:     1
    Solving:  Stress period:   669    Time step:     1
    Solving:  Stress period:   670    Time step:     1
    Solving:  Stress period:   671    Time step:     1
    Solving:  Stress period:   672    Time step:     1
    Solving:  Stress period:   673    Time step:     1
    Solving:  Stress period:   674    Time step:     1
    Solving:  Stress period:   675    Time step:     1
    Solving:  Stress period:   676    Time step:     1
    Solving:  Stress period:   677    Time step:     1
    Solving:  Stress period:   678    Time step:     1
    Solving:  Stress period:   679    Time step:     1
    Solving:  Stress period:   680    Time step:     1
    Solving:  Stress period:   681    Time step:     1
    Solving:  Stress period:   682    Time step:     1
    Solving:  Stress period:   683    Time step:     1
    Solving:  Stress period:   684    Time step:     1
    Solving:  Stress period:   685    Time step:     1
    Solving:  Stress period:   686    Time step:     1
    Solving:  Stress period:   687    Time step:     1
    Solving:  Stress period:   688    Time step:     1
    Solving:  Stress period:   689    Time step:     1
    Solving:  Stress period:   690    Time step:     1
    Solving:  Stress period:   691    Time step:     1
    Solving:  Stress period:   692    Time step:     1
    Solving:  Stress period:   693    Time step:     1
    Solving:  Stress period:   694    Time step:     1
    Solving:  Stress period:   695    Time step:     1
    Solving:  Stress period:   696    Time step:     1
    Solving:  Stress period:   697    Time step:     1
    Solving:  Stress period:   698    Time step:     1
    Solving:  Stress period:   699    Time step:     1
    Solving:  Stress period:   700    Time step:     1
    Solving:  Stress period:   701    Time step:     1
    Solving:  Stress period:   702    Time step:     1
    Solving:  Stress period:   703    Time step:     1
    Solving:  Stress period:   704    Time step:     1
    Solving:  Stress period:   705    Time step:     1
    Solving:  Stress period:   706    Time step:     1
    Solving:  Stress period:   707    Time step:     1
    Solving:  Stress period:   708    Time step:     1
    Solving:  Stress period:   709    Time step:     1
    Solving:  Stress period:   710    Time step:     1
    Solving:  Stress period:   711    Time step:     1
    Solving:  Stress period:   712    Time step:     1
    Solving:  Stress period:   713    Time step:     1
    Solving:  Stress period:   714    Time step:     1
    Solving:  Stress period:   715    Time step:     1
    Solving:  Stress period:   716    Time step:     1
    Solving:  Stress period:   717    Time step:     1
    Solving:  Stress period:   718    Time step:     1
    Solving:  Stress period:   719    Time step:     1
    Solving:  Stress period:   720    Time step:     1
    Solving:  Stress period:   721    Time step:     1
    Solving:  Stress period:   722    Time step:     1
    Solving:  Stress period:   723    Time step:     1
    Solving:  Stress period:   724    Time step:     1
    Solving:  Stress period:   725    Time step:     1
    Solving:  Stress period:   726    Time step:     1
    Solving:  Stress period:   727    Time step:     1
    Solving:  Stress period:   728    Time step:     1
    Solving:  Stress period:   729    Time step:     1
    Solving:  Stress period:   730    Time step:     1
    Solving:  Stress period:   731    Time step:     1
    Solving:  Stress period:   732    Time step:     1
    Solving:  Stress period:   733    Time step:     1
    Solving:  Stress period:   734    Time step:     1
    Solving:  Stress period:   735    Time step:     1
    Solving:  Stress period:   736    Time step:     1
    Solving:  Stress period:   737    Time step:     1
    Solving:  Stress period:   738    Time step:     1
    Solving:  Stress period:   739    Time step:     1
    Solving:  Stress period:   740    Time step:     1
    Solving:  Stress period:   741    Time step:     1
    Solving:  Stress period:   742    Time step:     1
    Solving:  Stress period:   743    Time step:     1
    Solving:  Stress period:   744    Time step:     1
    Solving:  Stress period:   745    Time step:     1
    Solving:  Stress period:   746    Time step:     1
    Solving:  Stress period:   747    Time step:     1
    Solving:  Stress period:   748    Time step:     1
    Solving:  Stress period:   749    Time step:     1
    Solving:  Stress period:   750    Time step:     1
    Solving:  Stress period:   751    Time step:     1
    Solving:  Stress period:   752    Time step:     1
    Solving:  Stress period:   753    Time step:     1
    Solving:  Stress period:   754    Time step:     1
    Solving:  Stress period:   755    Time step:     1
    Solving:  Stress period:   756    Time step:     1
    Solving:  Stress period:   757    Time step:     1
    Solving:  Stress period:   758    Time step:     1
    Solving:  Stress period:   759    Time step:     1
    Solving:  Stress period:   760    Time step:     1
    Solving:  Stress period:   761    Time step:     1
    Solving:  Stress period:   762    Time step:     1
    Solving:  Stress period:   763    Time step:     1
    Solving:  Stress period:   764    Time step:     1
    Solving:  Stress period:   765    Time step:     1
    Solving:  Stress period:   766    Time step:     1
    Solving:  Stress period:   767    Time step:     1
    Solving:  Stress period:   768    Time step:     1
    Solving:  Stress period:   769    Time step:     1
    Solving:  Stress period:   770    Time step:     1
    Solving:  Stress period:   771    Time step:     1
    Solving:  Stress period:   772    Time step:     1
    Solving:  Stress period:   773    Time step:     1
    Solving:  Stress period:   774    Time step:     1
    Solving:  Stress period:   775    Time step:     1
    Solving:  Stress period:   776    Time step:     1
    Solving:  Stress period:   777    Time step:     1
    Solving:  Stress period:   778    Time step:     1
    Solving:  Stress period:   779    Time step:     1
    Solving:  Stress period:   780    Time step:     1
    Solving:  Stress period:   781    Time step:     1
    Solving:  Stress period:   782    Time step:     1
    Solving:  Stress period:   783    Time step:     1
    Solving:  Stress period:   784    Time step:     1
    Solving:  Stress period:   785    Time step:     1
    Solving:  Stress period:   786    Time step:     1
    Solving:  Stress period:   787    Time step:     1
    Solving:  Stress period:   788    Time step:     1
    Solving:  Stress period:   789    Time step:     1
    Solving:  Stress period:   790    Time step:     1
    Solving:  Stress period:   791    Time step:     1
    Solving:  Stress period:   792    Time step:     1
    Solving:  Stress period:   793    Time step:     1
    Solving:  Stress period:   794    Time step:     1
    Solving:  Stress period:   795    Time step:     1
    Solving:  Stress period:   796    Time step:     1
    Solving:  Stress period:   797    Time step:     1
    Solving:  Stress period:   798    Time step:     1
    Solving:  Stress period:   799    Time step:     1
    Solving:  Stress period:   800    Time step:     1
    Solving:  Stress period:   801    Time step:     1
    Solving:  Stress period:   802    Time step:     1
    Solving:  Stress period:   803    Time step:     1
    Solving:  Stress period:   804    Time step:     1
    Solving:  Stress period:   805    Time step:     1
    Solving:  Stress period:   806    Time step:     1
    Solving:  Stress period:   807    Time step:     1
    Solving:  Stress period:   808    Time step:     1
    Solving:  Stress period:   809    Time step:     1
    Solving:  Stress period:   810    Time step:     1
    Solving:  Stress period:   811    Time step:     1
    Solving:  Stress period:   812    Time step:     1
    Solving:  Stress period:   813    Time step:     1
    Solving:  Stress period:   814    Time step:     1
    Solving:  Stress period:   815    Time step:     1
    Solving:  Stress period:   816    Time step:     1
    Solving:  Stress period:   817    Time step:     1
    Solving:  Stress period:   818    Time step:     1
    Solving:  Stress period:   819    Time step:     1
    Solving:  Stress period:   820    Time step:     1
    Solving:  Stress period:   821    Time step:     1
    Solving:  Stress period:   822    Time step:     1
    Solving:  Stress period:   823    Time step:     1
    Solving:  Stress period:   824    Time step:     1
    Solving:  Stress period:   825    Time step:     1
    Solving:  Stress period:   826    Time step:     1
    Solving:  Stress period:   827    Time step:     1
    Solving:  Stress period:   828    Time step:     1
    Solving:  Stress period:   829    Time step:     1
    Solving:  Stress period:   830    Time step:     1
    Solving:  Stress period:   831    Time step:     1
    Solving:  Stress period:   832    Time step:     1
    Solving:  Stress period:   833    Time step:     1
    Solving:  Stress period:   834    Time step:     1
    Solving:  Stress period:   835    Time step:     1
    Solving:  Stress period:   836    Time step:     1
    Solving:  Stress period:   837    Time step:     1
    Solving:  Stress period:   838    Time step:     1
    Solving:  Stress period:   839    Time step:     1
    Solving:  Stress period:   840    Time step:     1
    Solving:  Stress period:   841    Time step:     1
    Solving:  Stress period:   842    Time step:     1
    Solving:  Stress period:   843    Time step:     1
    Solving:  Stress period:   844    Time step:     1
    Solving:  Stress period:   845    Time step:     1
    Solving:  Stress period:   846    Time step:     1
    Solving:  Stress period:   847    Time step:     1
    Solving:  Stress period:   848    Time step:     1
    Solving:  Stress period:   849    Time step:     1
    Solving:  Stress period:   850    Time step:     1
    Solving:  Stress period:   851    Time step:     1
    Solving:  Stress period:   852    Time step:     1
    Solving:  Stress period:   853    Time step:     1
    Solving:  Stress period:   854    Time step:     1
    Solving:  Stress period:   855    Time step:     1
    Solving:  Stress period:   856    Time step:     1
    Solving:  Stress period:   857    Time step:     1
    Solving:  Stress period:   858    Time step:     1
    Solving:  Stress period:   859    Time step:     1
    Solving:  Stress period:   860    Time step:     1
    Solving:  Stress period:   861    Time step:     1
    Solving:  Stress period:   862    Time step:     1
    Solving:  Stress period:   863    Time step:     1
    Solving:  Stress period:   864    Time step:     1
    Solving:  Stress period:   865    Time step:     1
    Solving:  Stress period:   866    Time step:     1
    Solving:  Stress period:   867    Time step:     1
    Solving:  Stress period:   868    Time step:     1
    Solving:  Stress period:   869    Time step:     1
    Solving:  Stress period:   870    Time step:     1
    Solving:  Stress period:   871    Time step:     1
    Solving:  Stress period:   872    Time step:     1
    Solving:  Stress period:   873    Time step:     1
    Solving:  Stress period:   874    Time step:     1
    Solving:  Stress period:   875    Time step:     1
    Solving:  Stress period:   876    Time step:     1
    Solving:  Stress period:   877    Time step:     1
    Solving:  Stress period:   878    Time step:     1
    Solving:  Stress period:   879    Time step:     1
    Solving:  Stress period:   880    Time step:     1
    Solving:  Stress period:   881    Time step:     1
    Solving:  Stress period:   882    Time step:     1
    Solving:  Stress period:   883    Time step:     1
    Solving:  Stress period:   884    Time step:     1
    Solving:  Stress period:   885    Time step:     1
    Solving:  Stress period:   886    Time step:     1
    Solving:  Stress period:   887    Time step:     1
    Solving:  Stress period:   888    Time step:     1
    Solving:  Stress period:   889    Time step:     1
    Solving:  Stress period:   890    Time step:     1
    Solving:  Stress period:   891    Time step:     1
    Solving:  Stress period:   892    Time step:     1
    Solving:  Stress period:   893    Time step:     1
    Solving:  Stress period:   894    Time step:     1
    Solving:  Stress period:   895    Time step:     1
    Solving:  Stress period:   896    Time step:     1
    Solving:  Stress period:   897    Time step:     1
    Solving:  Stress period:   898    Time step:     1
    Solving:  Stress period:   899    Time step:     1
    Solving:  Stress period:   900    Time step:     1
    Solving:  Stress period:   901    Time step:     1
    Solving:  Stress period:   902    Time step:     1
    Solving:  Stress period:   903    Time step:     1
    Solving:  Stress period:   904    Time step:     1
    Solving:  Stress period:   905    Time step:     1
    Solving:  Stress period:   906    Time step:     1
    Solving:  Stress period:   907    Time step:     1
    Solving:  Stress period:   908    Time step:     1
    Solving:  Stress period:   909    Time step:     1
    Solving:  Stress period:   910    Time step:     1
    Solving:  Stress period:   911    Time step:     1
    Solving:  Stress period:   912    Time step:     1
    Solving:  Stress period:   913    Time step:     1
    Solving:  Stress period:   914    Time step:     1
    Solving:  Stress period:   915    Time step:     1
    Solving:  Stress period:   916    Time step:     1
    Solving:  Stress period:   917    Time step:     1
    Solving:  Stress period:   918    Time step:     1
    Solving:  Stress period:   919    Time step:     1
    Solving:  Stress period:   920    Time step:     1
    Solving:  Stress period:   921    Time step:     1
    Solving:  Stress period:   922    Time step:     1
    Solving:  Stress period:   923    Time step:     1
    Solving:  Stress period:   924    Time step:     1
    Solving:  Stress period:   925    Time step:     1
    Solving:  Stress period:   926    Time step:     1
    Solving:  Stress period:   927    Time step:     1
    Solving:  Stress period:   928    Time step:     1
    Solving:  Stress period:   929    Time step:     1
    Solving:  Stress period:   930    Time step:     1
    Solving:  Stress period:   931    Time step:     1
    Solving:  Stress period:   932    Time step:     1
    Solving:  Stress period:   933    Time step:     1
    Solving:  Stress period:   934    Time step:     1
    Solving:  Stress period:   935    Time step:     1
    Solving:  Stress period:   936    Time step:     1
    Solving:  Stress period:   937    Time step:     1
    Solving:  Stress period:   938    Time step:     1
    Solving:  Stress period:   939    Time step:     1
    Solving:  Stress period:   940    Time step:     1
    Solving:  Stress period:   941    Time step:     1
    Solving:  Stress period:   942    Time step:     1
    Solving:  Stress period:   943    Time step:     1
    Solving:  Stress period:   944    Time step:     1
    Solving:  Stress period:   945    Time step:     1
    Solving:  Stress period:   946    Time step:     1
    Solving:  Stress period:   947    Time step:     1
    Solving:  Stress period:   948    Time step:     1
    Solving:  Stress period:   949    Time step:     1
    Solving:  Stress period:   950    Time step:     1
    Solving:  Stress period:   951    Time step:     1
    Solving:  Stress period:   952    Time step:     1
    Solving:  Stress period:   953    Time step:     1
    Solving:  Stress period:   954    Time step:     1
    Solving:  Stress period:   955    Time step:     1
    Solving:  Stress period:   956    Time step:     1
    Solving:  Stress period:   957    Time step:     1
    Solving:  Stress period:   958    Time step:     1
    Solving:  Stress period:   959    Time step:     1
    Solving:  Stress period:   960    Time step:     1
    Solving:  Stress period:   961    Time step:     1
    Solving:  Stress period:   962    Time step:     1
    Solving:  Stress period:   963    Time step:     1
    Solving:  Stress period:   964    Time step:     1
    Solving:  Stress period:   965    Time step:     1
    Solving:  Stress period:   966    Time step:     1
    Solving:  Stress period:   967    Time step:     1
    Solving:  Stress period:   968    Time step:     1
    Solving:  Stress period:   969    Time step:     1
    Solving:  Stress period:   970    Time step:     1
    Solving:  Stress period:   971    Time step:     1
    Solving:  Stress period:   972    Time step:     1
    Solving:  Stress period:   973    Time step:     1
    Solving:  Stress period:   974    Time step:     1
    Solving:  Stress period:   975    Time step:     1
    Solving:  Stress period:   976    Time step:     1
    Solving:  Stress period:   977    Time step:     1
    Solving:  Stress period:   978    Time step:     1
    Solving:  Stress period:   979    Time step:     1
    Solving:  Stress period:   980    Time step:     1
    Solving:  Stress period:   981    Time step:     1
    Solving:  Stress period:   982    Time step:     1
    Solving:  Stress period:   983    Time step:     1
    Solving:  Stress period:   984    Time step:     1
    Solving:  Stress period:   985    Time step:     1
    Solving:  Stress period:   986    Time step:     1
    Solving:  Stress period:   987    Time step:     1
    Solving:  Stress period:   988    Time step:     1
    Solving:  Stress period:   989    Time step:     1
    Solving:  Stress period:   990    Time step:     1
    Solving:  Stress period:   991    Time step:     1
    Solving:  Stress period:   992    Time step:     1
    Solving:  Stress period:   993    Time step:     1
    Solving:  Stress period:   994    Time step:     1
    Solving:  Stress period:   995    Time step:     1
    Solving:  Stress period:   996    Time step:     1
    Solving:  Stress period:   997    Time step:     1
    Solving:  Stress period:   998    Time step:     1
    Solving:  Stress period:   999    Time step:     1
    Solving:  Stress period:  1000    Time step:     1
    Solving:  Stress period:  1001    Time step:     1
    Solving:  Stress period:  1002    Time step:     1
    Solving:  Stress period:  1003    Time step:     1
    Solving:  Stress period:  1004    Time step:     1
    Solving:  Stress period:  1005    Time step:     1
    Solving:  Stress period:  1006    Time step:     1
    Solving:  Stress period:  1007    Time step:     1
    Solving:  Stress period:  1008    Time step:     1
    Solving:  Stress period:  1009    Time step:     1
    Solving:  Stress period:  1010    Time step:     1
    Solving:  Stress period:  1011    Time step:     1
    Solving:  Stress period:  1012    Time step:     1
    Solving:  Stress period:  1013    Time step:     1
    Solving:  Stress period:  1014    Time step:     1
    Solving:  Stress period:  1015    Time step:     1
    Solving:  Stress period:  1016    Time step:     1
    Solving:  Stress period:  1017    Time step:     1
    Solving:  Stress period:  1018    Time step:     1
    Solving:  Stress period:  1019    Time step:     1
    Solving:  Stress period:  1020    Time step:     1
    Solving:  Stress period:  1021    Time step:     1
    Solving:  Stress period:  1022    Time step:     1
    Solving:  Stress period:  1023    Time step:     1
    Solving:  Stress period:  1024    Time step:     1
    Solving:  Stress period:  1025    Time step:     1
    Solving:  Stress period:  1026    Time step:     1
    Solving:  Stress period:  1027    Time step:     1
    Solving:  Stress period:  1028    Time step:     1
    Solving:  Stress period:  1029    Time step:     1
    Solving:  Stress period:  1030    Time step:     1
    Solving:  Stress period:  1031    Time step:     1
    Solving:  Stress period:  1032    Time step:     1
    Solving:  Stress period:  1033    Time step:     1
    Solving:  Stress period:  1034    Time step:     1
    Solving:  Stress period:  1035    Time step:     1
    Solving:  Stress period:  1036    Time step:     1
    Solving:  Stress period:  1037    Time step:     1
    Solving:  Stress period:  1038    Time step:     1
    Solving:  Stress period:  1039    Time step:     1
    Solving:  Stress period:  1040    Time step:     1
    Solving:  Stress period:  1041    Time step:     1
    Solving:  Stress period:  1042    Time step:     1
    Solving:  Stress period:  1043    Time step:     1
    Solving:  Stress period:  1044    Time step:     1
    Solving:  Stress period:  1045    Time step:     1
    Solving:  Stress period:  1046    Time step:     1
    Solving:  Stress period:  1047    Time step:     1
    Solving:  Stress period:  1048    Time step:     1
    Solving:  Stress period:  1049    Time step:     1
    Solving:  Stress period:  1050    Time step:     1
    Solving:  Stress period:  1051    Time step:     1
    Solving:  Stress period:  1052    Time step:     1
    Solving:  Stress period:  1053    Time step:     1
    Solving:  Stress period:  1054    Time step:     1
    Solving:  Stress period:  1055    Time step:     1
    Solving:  Stress period:  1056    Time step:     1
    Solving:  Stress period:  1057    Time step:     1
    Solving:  Stress period:  1058    Time step:     1
    Solving:  Stress period:  1059    Time step:     1
    Solving:  Stress period:  1060    Time step:     1
    Solving:  Stress period:  1061    Time step:     1
    Solving:  Stress period:  1062    Time step:     1
    Solving:  Stress period:  1063    Time step:     1
    Solving:  Stress period:  1064    Time step:     1
    Solving:  Stress period:  1065    Time step:     1
    Solving:  Stress period:  1066    Time step:     1
    Solving:  Stress period:  1067    Time step:     1
    Solving:  Stress period:  1068    Time step:     1
    Solving:  Stress period:  1069    Time step:     1
    Solving:  Stress period:  1070    Time step:     1
    Solving:  Stress period:  1071    Time step:     1
    Solving:  Stress period:  1072    Time step:     1
    Solving:  Stress period:  1073    Time step:     1
    Solving:  Stress period:  1074    Time step:     1
    Solving:  Stress period:  1075    Time step:     1
    Solving:  Stress period:  1076    Time step:     1
    Solving:  Stress period:  1077    Time step:     1
    Solving:  Stress period:  1078    Time step:     1
    Solving:  Stress period:  1079    Time step:     1
    Solving:  Stress period:  1080    Time step:     1
    Solving:  Stress period:  1081    Time step:     1
    Solving:  Stress period:  1082    Time step:     1
    Solving:  Stress period:  1083    Time step:     1
    Solving:  Stress period:  1084    Time step:     1
    Solving:  Stress period:  1085    Time step:     1
    Solving:  Stress period:  1086    Time step:     1
    Solving:  Stress period:  1087    Time step:     1
    Solving:  Stress period:  1088    Time step:     1
    Solving:  Stress period:  1089    Time step:     1
    Solving:  Stress period:  1090    Time step:     1
    Solving:  Stress period:  1091    Time step:     1
    Solving:  Stress period:  1092    Time step:     1
    Solving:  Stress period:  1093    Time step:     1
    Solving:  Stress period:  1094    Time step:     1
    Solving:  Stress period:  1095    Time step:     1
    Solving:  Stress period:  1096    Time step:     1
    Solving:  Stress period:  1097    Time step:     1
    Solving:  Stress period:  1098    Time step:     1
    Solving:  Stress period:  1099    Time step:     1
    Solving:  Stress period:  1100    Time step:     1
    Solving:  Stress period:  1101    Time step:     1
    Solving:  Stress period:  1102    Time step:     1
    Solving:  Stress period:  1103    Time step:     1
    Solving:  Stress period:  1104    Time step:     1
    Solving:  Stress period:  1105    Time step:     1
    Solving:  Stress period:  1106    Time step:     1
    Solving:  Stress period:  1107    Time step:     1
    Solving:  Stress period:  1108    Time step:     1
    Solving:  Stress period:  1109    Time step:     1
    Solving:  Stress period:  1110    Time step:     1
    Solving:  Stress period:  1111    Time step:     1
    Solving:  Stress period:  1112    Time step:     1
    Solving:  Stress period:  1113    Time step:     1
    Solving:  Stress period:  1114    Time step:     1
    Solving:  Stress period:  1115    Time step:     1
    Solving:  Stress period:  1116    Time step:     1
    Solving:  Stress period:  1117    Time step:     1
    Solving:  Stress period:  1118    Time step:     1
    Solving:  Stress period:  1119    Time step:     1
    Solving:  Stress period:  1120    Time step:     1
    Solving:  Stress period:  1121    Time step:     1
    Solving:  Stress period:  1122    Time step:     1
    Solving:  Stress period:  1123    Time step:     1
    Solving:  Stress period:  1124    Time step:     1
    Solving:  Stress period:  1125    Time step:     1
    Solving:  Stress period:  1126    Time step:     1
    Solving:  Stress period:  1127    Time step:     1
    Solving:  Stress period:  1128    Time step:     1
    Solving:  Stress period:  1129    Time step:     1
    Solving:  Stress period:  1130    Time step:     1
    Solving:  Stress period:  1131    Time step:     1
    Solving:  Stress period:  1132    Time step:     1
    Solving:  Stress period:  1133    Time step:     1
    Solving:  Stress period:  1134    Time step:     1
    Solving:  Stress period:  1135    Time step:     1
    Solving:  Stress period:  1136    Time step:     1
    Solving:  Stress period:  1137    Time step:     1
    Solving:  Stress period:  1138    Time step:     1
    Solving:  Stress period:  1139    Time step:     1
    Solving:  Stress period:  1140    Time step:     1
    Solving:  Stress period:  1141    Time step:     1
    Solving:  Stress period:  1142    Time step:     1
    Solving:  Stress period:  1143    Time step:     1
    Solving:  Stress period:  1144    Time step:     1
    Solving:  Stress period:  1145    Time step:     1
    Solving:  Stress period:  1146    Time step:     1
    Solving:  Stress period:  1147    Time step:     1
    Solving:  Stress period:  1148    Time step:     1
    Solving:  Stress period:  1149    Time step:     1
    Solving:  Stress period:  1150    Time step:     1
    Solving:  Stress period:  1151    Time step:     1
    Solving:  Stress period:  1152    Time step:     1
    Solving:  Stress period:  1153    Time step:     1
    Solving:  Stress period:  1154    Time step:     1
    Solving:  Stress period:  1155    Time step:     1
    Solving:  Stress period:  1156    Time step:     1
    Solving:  Stress period:  1157    Time step:     1
    Solving:  Stress period:  1158    Time step:     1
    Solving:  Stress period:  1159    Time step:     1
    Solving:  Stress period:  1160    Time step:     1
    Solving:  Stress period:  1161    Time step:     1
    Solving:  Stress period:  1162    Time step:     1
    Solving:  Stress period:  1163    Time step:     1
    Solving:  Stress period:  1164    Time step:     1
    Solving:  Stress period:  1165    Time step:     1
    Solving:  Stress period:  1166    Time step:     1
    Solving:  Stress period:  1167    Time step:     1
    Solving:  Stress period:  1168    Time step:     1
    Solving:  Stress period:  1169    Time step:     1
    Solving:  Stress period:  1170    Time step:     1
    Solving:  Stress period:  1171    Time step:     1
    Solving:  Stress period:  1172    Time step:     1
    Solving:  Stress period:  1173    Time step:     1
    Solving:  Stress period:  1174    Time step:     1
    Solving:  Stress period:  1175    Time step:     1
    Solving:  Stress period:  1176    Time step:     1
    Solving:  Stress period:  1177    Time step:     1
    Solving:  Stress period:  1178    Time step:     1
    Solving:  Stress period:  1179    Time step:     1
    Solving:  Stress period:  1180    Time step:     1
    Solving:  Stress period:  1181    Time step:     1
    Solving:  Stress period:  1182    Time step:     1
    Solving:  Stress period:  1183    Time step:     1
    Solving:  Stress period:  1184    Time step:     1
    Solving:  Stress period:  1185    Time step:     1
    Solving:  Stress period:  1186    Time step:     1
    Solving:  Stress period:  1187    Time step:     1
    Solving:  Stress period:  1188    Time step:     1
    Solving:  Stress period:  1189    Time step:     1
    Solving:  Stress period:  1190    Time step:     1
    Solving:  Stress period:  1191    Time step:     1
    Solving:  Stress period:  1192    Time step:     1
    Solving:  Stress period:  1193    Time step:     1
    Solving:  Stress period:  1194    Time step:     1
    Solving:  Stress period:  1195    Time step:     1
    Solving:  Stress period:  1196    Time step:     1
    Solving:  Stress period:  1197    Time step:     1
    Solving:  Stress period:  1198    Time step:     1
    Solving:  Stress period:  1199    Time step:     1
    Solving:  Stress period:  1200    Time step:     1
    Solving:  Stress period:  1201    Time step:     1
    Solving:  Stress period:  1202    Time step:     1
    Solving:  Stress period:  1203    Time step:     1
    Solving:  Stress period:  1204    Time step:     1
    Solving:  Stress period:  1205    Time step:     1
    Solving:  Stress period:  1206    Time step:     1
    Solving:  Stress period:  1207    Time step:     1
    Solving:  Stress period:  1208    Time step:     1
    Solving:  Stress period:  1209    Time step:     1
    Solving:  Stress period:  1210    Time step:     1
    Solving:  Stress period:  1211    Time step:     1
    Solving:  Stress period:  1212    Time step:     1
    Solving:  Stress period:  1213    Time step:     1
    Solving:  Stress period:  1214    Time step:     1
    Solving:  Stress period:  1215    Time step:     1
    Solving:  Stress period:  1216    Time step:     1
    Solving:  Stress period:  1217    Time step:     1
    Solving:  Stress period:  1218    Time step:     1
    Solving:  Stress period:  1219    Time step:     1
    Solving:  Stress period:  1220    Time step:     1
    Solving:  Stress period:  1221    Time step:     1
    Solving:  Stress period:  1222    Time step:     1
    Solving:  Stress period:  1223    Time step:     1
    Solving:  Stress period:  1224    Time step:     1
    Solving:  Stress period:  1225    Time step:     1
    Solving:  Stress period:  1226    Time step:     1
    Solving:  Stress period:  1227    Time step:     1
    Solving:  Stress period:  1228    Time step:     1
    Solving:  Stress period:  1229    Time step:     1
    Solving:  Stress period:  1230    Time step:     1
    Solving:  Stress period:  1231    Time step:     1
    Solving:  Stress period:  1232    Time step:     1
    Solving:  Stress period:  1233    Time step:     1
    Solving:  Stress period:  1234    Time step:     1
    Solving:  Stress period:  1235    Time step:     1
    Solving:  Stress period:  1236    Time step:     1
    Solving:  Stress period:  1237    Time step:     1
    Solving:  Stress period:  1238    Time step:     1
    Solving:  Stress period:  1239    Time step:     1
    Solving:  Stress period:  1240    Time step:     1
    Solving:  Stress period:  1241    Time step:     1
    Solving:  Stress period:  1242    Time step:     1
    Solving:  Stress period:  1243    Time step:     1
    Solving:  Stress period:  1244    Time step:     1
    Solving:  Stress period:  1245    Time step:     1
    Solving:  Stress period:  1246    Time step:     1
    Solving:  Stress period:  1247    Time step:     1
    Solving:  Stress period:  1248    Time step:     1
    Solving:  Stress period:  1249    Time step:     1
    Solving:  Stress period:  1250    Time step:     1
    Solving:  Stress period:  1251    Time step:     1
    Solving:  Stress period:  1252    Time step:     1
    Solving:  Stress period:  1253    Time step:     1
    Solving:  Stress period:  1254    Time step:     1
    Solving:  Stress period:  1255    Time step:     1
    Solving:  Stress period:  1256    Time step:     1
    Solving:  Stress period:  1257    Time step:     1
    Solving:  Stress period:  1258    Time step:     1
    Solving:  Stress period:  1259    Time step:     1
    Solving:  Stress period:  1260    Time step:     1
    Solving:  Stress period:  1261    Time step:     1
    Solving:  Stress period:  1262    Time step:     1
    Solving:  Stress period:  1263    Time step:     1
    Solving:  Stress period:  1264    Time step:     1
    Solving:  Stress period:  1265    Time step:     1
    Solving:  Stress period:  1266    Time step:     1
    Solving:  Stress period:  1267    Time step:     1
    Solving:  Stress period:  1268    Time step:     1
    Solving:  Stress period:  1269    Time step:     1
    Solving:  Stress period:  1270    Time step:     1
    Solving:  Stress period:  1271    Time step:     1
    Solving:  Stress period:  1272    Time step:     1
    Solving:  Stress period:  1273    Time step:     1
    Solving:  Stress period:  1274    Time step:     1
    Solving:  Stress period:  1275    Time step:     1
    Solving:  Stress period:  1276    Time step:     1
    Solving:  Stress period:  1277    Time step:     1
    Solving:  Stress period:  1278    Time step:     1
    Solving:  Stress period:  1279    Time step:     1
    Solving:  Stress period:  1280    Time step:     1
    Solving:  Stress period:  1281    Time step:     1
    Solving:  Stress period:  1282    Time step:     1
    Solving:  Stress period:  1283    Time step:     1
    Solving:  Stress period:  1284    Time step:     1
    Solving:  Stress period:  1285    Time step:     1
    Solving:  Stress period:  1286    Time step:     1
    Solving:  Stress period:  1287    Time step:     1
    Solving:  Stress period:  1288    Time step:     1
    Solving:  Stress period:  1289    Time step:     1
    Solving:  Stress period:  1290    Time step:     1
    Solving:  Stress period:  1291    Time step:     1
    Solving:  Stress period:  1292    Time step:     1
    Solving:  Stress period:  1293    Time step:     1
    Solving:  Stress period:  1294    Time step:     1
    Solving:  Stress period:  1295    Time step:     1
    Solving:  Stress period:  1296    Time step:     1
    Solving:  Stress period:  1297    Time step:     1
    Solving:  Stress period:  1298    Time step:     1
    Solving:  Stress period:  1299    Time step:     1
    Solving:  Stress period:  1300    Time step:     1
    Solving:  Stress period:  1301    Time step:     1
    Solving:  Stress period:  1302    Time step:     1
    Solving:  Stress period:  1303    Time step:     1
    Solving:  Stress period:  1304    Time step:     1
    Solving:  Stress period:  1305    Time step:     1
    Solving:  Stress period:  1306    Time step:     1
    Solving:  Stress period:  1307    Time step:     1
    Solving:  Stress period:  1308    Time step:     1
    Solving:  Stress period:  1309    Time step:     1
    Solving:  Stress period:  1310    Time step:     1
    Solving:  Stress period:  1311    Time step:     1
    Solving:  Stress period:  1312    Time step:     1
    Solving:  Stress period:  1313    Time step:     1
    Solving:  Stress period:  1314    Time step:     1
    Solving:  Stress period:  1315    Time step:     1
    Solving:  Stress period:  1316    Time step:     1
    Solving:  Stress period:  1317    Time step:     1
    Solving:  Stress period:  1318    Time step:     1
    Solving:  Stress period:  1319    Time step:     1
    Solving:  Stress period:  1320    Time step:     1
    Solving:  Stress period:  1321    Time step:     1
    Solving:  Stress period:  1322    Time step:     1
    Solving:  Stress period:  1323    Time step:     1
    Solving:  Stress period:  1324    Time step:     1
    Solving:  Stress period:  1325    Time step:     1
    Solving:  Stress period:  1326    Time step:     1
    Solving:  Stress period:  1327    Time step:     1
    Solving:  Stress period:  1328    Time step:     1
    Solving:  Stress period:  1329    Time step:     1
    Solving:  Stress period:  1330    Time step:     1
    Solving:  Stress period:  1331    Time step:     1
    Solving:  Stress period:  1332    Time step:     1
    Solving:  Stress period:  1333    Time step:     1
    Solving:  Stress period:  1334    Time step:     1
    Solving:  Stress period:  1335    Time step:     1
    Solving:  Stress period:  1336    Time step:     1
    Solving:  Stress period:  1337    Time step:     1
    Solving:  Stress period:  1338    Time step:     1
    Solving:  Stress period:  1339    Time step:     1
    Solving:  Stress period:  1340    Time step:     1
    Solving:  Stress period:  1341    Time step:     1
    Solving:  Stress period:  1342    Time step:     1
    Solving:  Stress period:  1343    Time step:     1
    Solving:  Stress period:  1344    Time step:     1
    Solving:  Stress period:  1345    Time step:     1
    Solving:  Stress period:  1346    Time step:     1
    Solving:  Stress period:  1347    Time step:     1
    Solving:  Stress period:  1348    Time step:     1
    Solving:  Stress period:  1349    Time step:     1
    Solving:  Stress period:  1350    Time step:     1
    Solving:  Stress period:  1351    Time step:     1
    Solving:  Stress period:  1352    Time step:     1
    Solving:  Stress period:  1353    Time step:     1
    Solving:  Stress period:  1354    Time step:     1
    Solving:  Stress period:  1355    Time step:     1
    Solving:  Stress period:  1356    Time step:     1
    Solving:  Stress period:  1357    Time step:     1
    Solving:  Stress period:  1358    Time step:     1
    Solving:  Stress period:  1359    Time step:     1
    Solving:  Stress period:  1360    Time step:     1
    Solving:  Stress period:  1361    Time step:     1
    Solving:  Stress period:  1362    Time step:     1
    Solving:  Stress period:  1363    Time step:     1
    Solving:  Stress period:  1364    Time step:     1
    Solving:  Stress period:  1365    Time step:     1
    Solving:  Stress period:  1366    Time step:     1
    Solving:  Stress period:  1367    Time step:     1
    Solving:  Stress period:  1368    Time step:     1
    Solving:  Stress period:  1369    Time step:     1
    Solving:  Stress period:  1370    Time step:     1
    Solving:  Stress period:  1371    Time step:     1
    Solving:  Stress period:  1372    Time step:     1
    Solving:  Stress period:  1373    Time step:     1
    Solving:  Stress period:  1374    Time step:     1
    Solving:  Stress period:  1375    Time step:     1
    Solving:  Stress period:  1376    Time step:     1
    Solving:  Stress period:  1377    Time step:     1
    Solving:  Stress period:  1378    Time step:     1
    Solving:  Stress period:  1379    Time step:     1
    Solving:  Stress period:  1380    Time step:     1
    Solving:  Stress period:  1381    Time step:     1
    Solving:  Stress period:  1382    Time step:     1
    Solving:  Stress period:  1383    Time step:     1
    Solving:  Stress period:  1384    Time step:     1
    Solving:  Stress period:  1385    Time step:     1
    Solving:  Stress period:  1386    Time step:     1
    Solving:  Stress period:  1387    Time step:     1
    Solving:  Stress period:  1388    Time step:     1
    Solving:  Stress period:  1389    Time step:     1
    Solving:  Stress period:  1390    Time step:     1
    Solving:  Stress period:  1391    Time step:     1
    Solving:  Stress period:  1392    Time step:     1
    Solving:  Stress period:  1393    Time step:     1
    Solving:  Stress period:  1394    Time step:     1
    Solving:  Stress period:  1395    Time step:     1
    Solving:  Stress period:  1396    Time step:     1
    Solving:  Stress period:  1397    Time step:     1
    Solving:  Stress period:  1398    Time step:     1
    Solving:  Stress period:  1399    Time step:     1
    Solving:  Stress period:  1400    Time step:     1
    Solving:  Stress period:  1401    Time step:     1
    Solving:  Stress period:  1402    Time step:     1
    Solving:  Stress period:  1403    Time step:     1
    Solving:  Stress period:  1404    Time step:     1
    Solving:  Stress period:  1405    Time step:     1
    Solving:  Stress period:  1406    Time step:     1
    Solving:  Stress period:  1407    Time step:     1
    Solving:  Stress period:  1408    Time step:     1
    Solving:  Stress period:  1409    Time step:     1
    Solving:  Stress period:  1410    Time step:     1
    Solving:  Stress period:  1411    Time step:     1
    Solving:  Stress period:  1412    Time step:     1
    Solving:  Stress period:  1413    Time step:     1
    Solving:  Stress period:  1414    Time step:     1
    Solving:  Stress period:  1415    Time step:     1
    Solving:  Stress period:  1416    Time step:     1
    Solving:  Stress period:  1417    Time step:     1
    Solving:  Stress period:  1418    Time step:     1
    Solving:  Stress period:  1419    Time step:     1
    Solving:  Stress period:  1420    Time step:     1
    Solving:  Stress period:  1421    Time step:     1
    Solving:  Stress period:  1422    Time step:     1
    Solving:  Stress period:  1423    Time step:     1
    Solving:  Stress period:  1424    Time step:     1
    Solving:  Stress period:  1425    Time step:     1
    Solving:  Stress period:  1426    Time step:     1
    Solving:  Stress period:  1427    Time step:     1
    Solving:  Stress period:  1428    Time step:     1
    Solving:  Stress period:  1429    Time step:     1
    Solving:  Stress period:  1430    Time step:     1
    Solving:  Stress period:  1431    Time step:     1
    Solving:  Stress period:  1432    Time step:     1
    Solving:  Stress period:  1433    Time step:     1
[...]
    Solving:  Stress period:  9868    Time step:     1
    Solving:  Stress period:  9869    Time step:     1
    Solving:  Stress period:  9870    Time step:     1
    Solving:  Stress period:  9871    Time step:     1
    Solving:  Stress period:  9872    Time step:     1
    Solving:  Stress period:  9873    Time step:     1
    Solving:  Stress period:  9874    Time step:     1
    Solving:  Stress period:  9875    Time step:     1
    Solving:  Stress period:  9876    Time step:     1
    Solving:  Stress period:  9877    Time step:     1
    Solving:  Stress period:  9878    Time step:     1
    Solving:  Stress period:  9879    Time step:     1
    Solving:  Stress period:  9880    Time step:     1
    Solving:  Stress period:  9881    Time step:     1
    Solving:  Stress period:  9882    Time step:     1
    Solving:  Stress period:  9883    Time step:     1
    Solving:  Stress period:  9884    Time step:     1
    Solving:  Stress period:  9885    Time step:     1
    Solving:  Stress period:  9886    Time step:     1
    Solving:  Stress period:  9887    Time step:     1
    Solving:  Stress period:  9888    Time step:     1
    Solving:  Stress period:  9889    Time step:     1
    Solving:  Stress period:  9890    Time step:     1
    Solving:  Stress period:  9891    Time step:     1
    Solving:  Stress period:  9892    Time step:     1
    Solving:  Stress period:  9893    Time step:     1
    Solving:  Stress period:  9894    Time step:     1
    Solving:  Stress period:  9895    Time step:     1
    Solving:  Stress period:  9896    Time step:     1
    Solving:  Stress period:  9897    Time step:     1
    Solving:  Stress period:  9898    Time step:     1
    Solving:  Stress period:  9899    Time step:     1
    Solving:  Stress period:  9900    Time step:     1
    Solving:  Stress period:  9901    Time step:     1
    Solving:  Stress period:  9902    Time step:     1
    Solving:  Stress period:  9903    Time step:     1
    Solving:  Stress period:  9904    Time step:     1
    Solving:  Stress period:  9905    Time step:     1
    Solving:  Stress period:  9906    Time step:     1
    Solving:  Stress period:  9907    Time step:     1
    Solving:  Stress period:  9908    Time step:     1
    Solving:  Stress period:  9909    Time step:     1
    Solving:  Stress period:  9910    Time step:     1
    Solving:  Stress period:  9911    Time step:     1
    Solving:  Stress period:  9912    Time step:     1
    Solving:  Stress period:  9913    Time step:     1
    Solving:  Stress period:  9914    Time step:     1
    Solving:  Stress period:  9915    Time step:     1
    Solving:  Stress period:  9916    Time step:     1
    Solving:  Stress period:  9917    Time step:     1
    Solving:  Stress period:  9918    Time step:     1
    Solving:  Stress period:  9919    Time step:     1
    Solving:  Stress period:  9920    Time step:     1
    Solving:  Stress period:  9921    Time step:     1
    Solving:  Stress period:  9922    Time step:     1
    Solving:  Stress period:  9923    Time step:     1
    Solving:  Stress period:  9924    Time step:     1
    Solving:  Stress period:  9925    Time step:     1
    Solving:  Stress period:  9926    Time step:     1
    Solving:  Stress period:  9927    Time step:     1
    Solving:  Stress period:  9928    Time step:     1
    Solving:  Stress period:  9929    Time step:     1
    Solving:  Stress period:  9930    Time step:     1
    Solving:  Stress period:  9931    Time step:     1
    Solving:  Stress period:  9932    Time step:     1
    Solving:  Stress period:  9933    Time step:     1
    Solving:  Stress period:  9934    Time step:     1
    Solving:  Stress period:  9935    Time step:     1
    Solving:  Stress period:  9936    Time step:     1
    Solving:  Stress period:  9937    Time step:     1
    Solving:  Stress period:  9938    Time step:     1
    Solving:  Stress period:  9939    Time step:     1
    Solving:  Stress period:  9940    Time step:     1
    Solving:  Stress period:  9941    Time step:     1
    Solving:  Stress period:  9942    Time step:     1
    Solving:  Stress period:  9943    Time step:     1
    Solving:  Stress period:  9944    Time step:     1
    Solving:  Stress period:  9945    Time step:     1
    Solving:  Stress period:  9946    Time step:     1
    Solving:  Stress period:  9947    Time step:     1
    Solving:  Stress period:  9948    Time step:     1
    Solving:  Stress period:  9949    Time step:     1
    Solving:  Stress period:  9950    Time step:     1
    Solving:  Stress period:  9951    Time step:     1
    Solving:  Stress period:  9952    Time step:     1
    Solving:  Stress period:  9953    Time step:     1
    Solving:  Stress period:  9954    Time step:     1
    Solving:  Stress period:  9955    Time step:     1
    Solving:  Stress period:  9956    Time step:     1
    Solving:  Stress period:  9957    Time step:     1
    Solving:  Stress period:  9958    Time step:     1
    Solving:  Stress period:  9959    Time step:     1
    Solving:  Stress period:  9960    Time step:     1
    Solving:  Stress period:  9961    Time step:     1
    Solving:  Stress period:  9962    Time step:     1
    Solving:  Stress period:  9963    Time step:     1
    Solving:  Stress period:  9964    Time step:     1
    Solving:  Stress period:  9965    Time step:     1
    Solving:  Stress period:  9966    Time step:     1
    Solving:  Stress period:  9967    Time step:     1
    Solving:  Stress period:  9968    Time step:     1
    Solving:  Stress period:  9969    Time step:     1
    Solving:  Stress period:  9970    Time step:     1
    Solving:  Stress period:  9971    Time step:     1
    Solving:  Stress period:  9972    Time step:     1
    Solving:  Stress period:  9973    Time step:     1
    Solving:  Stress period:  9974    Time step:     1
    Solving:  Stress period:  9975    Time step:     1
    Solving:  Stress period:  9976    Time step:     1
    Solving:  Stress period:  9977    Time step:     1
    Solving:  Stress period:  9978    Time step:     1
    Solving:  Stress period:  9979    Time step:     1
    Solving:  Stress period:  9980    Time step:     1
    Solving:  Stress period:  9981    Time step:     1
    Solving:  Stress period:  9982    Time step:     1
    Solving:  Stress period:  9983    Time step:     1
    Solving:  Stress period:  9984    Time step:     1
    Solving:  Stress period:  9985    Time step:     1
    Solving:  Stress period:  9986    Time step:     1
    Solving:  Stress period:  9987    Time step:     1
    Solving:  Stress period:  9988    Time step:     1
    Solving:  Stress period:  9989    Time step:     1
    Solving:  Stress period:  9990    Time step:     1
    Solving:  Stress period:  9991    Time step:     1
    Solving:  Stress period:  9992    Time step:     1
    Solving:  Stress period:  9993    Time step:     1
    Solving:  Stress period:  9994    Time step:     1
    Solving:  Stress period:  9995    Time step:     1
    Solving:  Stress period:  9996    Time step:     1
    Solving:  Stress period:  9997    Time step:     1
    Solving:  Stress period:  9998    Time step:     1
    Solving:  Stress period:  9999    Time step:     1
    Solving:  Stress period: 10000    Time step:     1
    Solving:  Stress period: 10001    Time step:     1
    Solving:  Stress period: 10002    Time step:     1
    Solving:  Stress period: 10003    Time step:     1
    Solving:  Stress period: 10004    Time step:     1
    Solving:  Stress period: 10005    Time step:     1
    Solving:  Stress period: 10006    Time step:     1
    Solving:  Stress period: 10007    Time step:     1
    Solving:  Stress period: 10008    Time step:     1
    Solving:  Stress period: 10009    Time step:     1
    Solving:  Stress period: 10010    Time step:     1
    Solving:  Stress period: 10011    Time step:     1
    Solving:  Stress period: 10012    Time step:     1
    Solving:  Stress period: 10013    Time step:     1
    Solving:  Stress period: 10014    Time step:     1
    Solving:  Stress period: 10015    Time step:     1
    Solving:  Stress period: 10016    Time step:     1
    Solving:  Stress period: 10017    Time step:     1
    Solving:  Stress period: 10018    Time step:     1
    Solving:  Stress period: 10019    Time step:     1
    Solving:  Stress period: 10020    Time step:     1
    Solving:  Stress period: 10021    Time step:     1
    Solving:  Stress period: 10022    Time step:     1
    Solving:  Stress period: 10023    Time step:     1
    Solving:  Stress period: 10024    Time step:     1
    Solving:  Stress period: 10025    Time step:     1
    Solving:  Stress period: 10026    Time step:     1
    Solving:  Stress period: 10027    Time step:     1
    Solving:  Stress period: 10028    Time step:     1
    Solving:  Stress period: 10029    Time step:     1
    Solving:  Stress period: 10030    Time step:     1
    Solving:  Stress period: 10031    Time step:     1
    Solving:  Stress period: 10032    Time step:     1
    Solving:  Stress period: 10033    Time step:     1
    Solving:  Stress period: 10034    Time step:     1
    Solving:  Stress period: 10035    Time step:     1
    Solving:  Stress period: 10036    Time step:     1
    Solving:  Stress period: 10037    Time step:     1
    Solving:  Stress period: 10038    Time step:     1
    Solving:  Stress period: 10039    Time step:     1
    Solving:  Stress period: 10040    Time step:     1
    Solving:  Stress period: 10041    Time step:     1
    Solving:  Stress period: 10042    Time step:     1
    Solving:  Stress period: 10043    Time step:     1
    Solving:  Stress period: 10044    Time step:     1
    Solving:  Stress period: 10045    Time step:     1
    Solving:  Stress period: 10046    Time step:     1
    Solving:  Stress period: 10047    Time step:     1
    Solving:  Stress period: 10048    Time step:     1
    Solving:  Stress period: 10049    Time step:     1
    Solving:  Stress period: 10050    Time step:     1
    Solving:  Stress period: 10051    Time step:     1
    Solving:  Stress period: 10052    Time step:     1
    Solving:  Stress period: 10053    Time step:     1
    Solving:  Stress period: 10054    Time step:     1
    Solving:  Stress period: 10055    Time step:     1
    Solving:  Stress period: 10056    Time step:     1
    Solving:  Stress period: 10057    Time step:     1
    Solving:  Stress period: 10058    Time step:     1
    Solving:  Stress period: 10059    Time step:     1
    Solving:  Stress period: 10060    Time step:     1
    Solving:  Stress period: 10061    Time step:     1
    Solving:  Stress period: 10062    Time step:     1
    Solving:  Stress period: 10063    Time step:     1
    Solving:  Stress period: 10064    Time step:     1
    Solving:  Stress period: 10065    Time step:     1
    Solving:  Stress period: 10066    Time step:     1
    Solving:  Stress period: 10067    Time step:     1
    Solving:  Stress period: 10068    Time step:     1
    Solving:  Stress period: 10069    Time step:     1
    Solving:  Stress period: 10070    Time step:     1
    Solving:  Stress period: 10071    Time step:     1
    Solving:  Stress period: 10072    Time step:     1
    Solving:  Stress period: 10073    Time step:     1
    Solving:  Stress period: 10074    Time step:     1
    Solving:  Stress period: 10075    Time step:     1
    Solving:  Stress period: 10076    Time step:     1
    Solving:  Stress period: 10077    Time step:     1
    Solving:  Stress period: 10078    Time step:     1
    Solving:  Stress period: 10079    Time step:     1
    Solving:  Stress period: 10080    Time step:     1
    Solving:  Stress period: 10081    Time step:     1
    Solving:  Stress period: 10082    Time step:     1
    Solving:  Stress period: 10083    Time step:     1
    Solving:  Stress period: 10084    Time step:     1
    Solving:  Stress period: 10085    Time step:     1
    Solving:  Stress period: 10086    Time step:     1
    Solving:  Stress period: 10087    Time step:     1
    Solving:  Stress period: 10088    Time step:     1
    Solving:  Stress period: 10089    Time step:     1
    Solving:  Stress period: 10090    Time step:     1
    Solving:  Stress period: 10091    Time step:     1
    Solving:  Stress period: 10092    Time step:     1
    Solving:  Stress period: 10093    Time step:     1
    Solving:  Stress period: 10094    Time step:     1
    Solving:  Stress period: 10095    Time step:     1
    Solving:  Stress period: 10096    Time step:     1
    Solving:  Stress period: 10097    Time step:     1
    Solving:  Stress period: 10098    Time step:     1
    Solving:  Stress period: 10099    Time step:     1
    Solving:  Stress period: 10100    Time step:     1
    Solving:  Stress period: 10101    Time step:     1
    Solving:  Stress period: 10102    Time step:     1
    Solving:  Stress period: 10103    Time step:     1
    Solving:  Stress period: 10104    Time step:     1
    Solving:  Stress period: 10105    Time step:     1
    Solving:  Stress period: 10106    Time step:     1
    Solving:  Stress period: 10107    Time step:     1
    Solving:  Stress period: 10108    Time step:     1
    Solving:  Stress period: 10109    Time step:     1
    Solving:  Stress period: 10110    Time step:     1
    Solving:  Stress period: 10111    Time step:     1
    Solving:  Stress period: 10112    Time step:     1
    Solving:  Stress period: 10113    Time step:     1
    Solving:  Stress period: 10114    Time step:     1
    Solving:  Stress period: 10115    Time step:     1
    Solving:  Stress period: 10116    Time step:     1
    Solving:  Stress period: 10117    Time step:     1
    Solving:  Stress period: 10118    Time step:     1
    Solving:  Stress period: 10119    Time step:     1
    Solving:  Stress period: 10120    Time step:     1
    Solving:  Stress period: 10121    Time step:     1
    Solving:  Stress period: 10122    Time step:     1
    Solving:  Stress period: 10123    Time step:     1
    Solving:  Stress period: 10124    Time step:     1
    Solving:  Stress period: 10125    Time step:     1
    Solving:  Stress period: 10126    Time step:     1
    Solving:  Stress period: 10127    Time step:     1
    Solving:  Stress period: 10128    Time step:     1
    Solving:  Stress period: 10129    Time step:     1
    Solving:  Stress period: 10130    Time step:     1
    Solving:  Stress period: 10131    Time step:     1
    Solving:  Stress period: 10132    Time step:     1
    Solving:  Stress period: 10133    Time step:     1
    Solving:  Stress period: 10134    Time step:     1
    Solving:  Stress period: 10135    Time step:     1
    Solving:  Stress period: 10136    Time step:     1
    Solving:  Stress period: 10137    Time step:     1
    Solving:  Stress period: 10138    Time step:     1
    Solving:  Stress period: 10139    Time step:     1
    Solving:  Stress period: 10140    Time step:     1
    Solving:  Stress period: 10141    Time step:     1
    Solving:  Stress period: 10142    Time step:     1
    Solving:  Stress period: 10143    Time step:     1
    Solving:  Stress period: 10144    Time step:     1
    Solving:  Stress period: 10145    Time step:     1
    Solving:  Stress period: 10146    Time step:     1
    Solving:  Stress period: 10147    Time step:     1
    Solving:  Stress period: 10148    Time step:     1
    Solving:  Stress period: 10149    Time step:     1
    Solving:  Stress period: 10150    Time step:     1
    Solving:  Stress period: 10151    Time step:     1
    Solving:  Stress period: 10152    Time step:     1
    Solving:  Stress period: 10153    Time step:     1
    Solving:  Stress period: 10154    Time step:     1
    Solving:  Stress period: 10155    Time step:     1
    Solving:  Stress period: 10156    Time step:     1
    Solving:  Stress period: 10157    Time step:     1
    Solving:  Stress period: 10158    Time step:     1
    Solving:  Stress period: 10159    Time step:     1
    Solving:  Stress period: 10160    Time step:     1
    Solving:  Stress period: 10161    Time step:     1
    Solving:  Stress period: 10162    Time step:     1
    Solving:  Stress period: 10163    Time step:     1
    Solving:  Stress period: 10164    Time step:     1
    Solving:  Stress period: 10165    Time step:     1
    Solving:  Stress period: 10166    Time step:     1
    Solving:  Stress period: 10167    Time step:     1
    Solving:  Stress period: 10168    Time step:     1
    Solving:  Stress period: 10169    Time step:     1
    Solving:  Stress period: 10170    Time step:     1
    Solving:  Stress period: 10171    Time step:     1
    Solving:  Stress period: 10172    Time step:     1
    Solving:  Stress period: 10173    Time step:     1
    Solving:  Stress period: 10174    Time step:     1
    Solving:  Stress period: 10175    Time step:     1
    Solving:  Stress period: 10176    Time step:     1
    Solving:  Stress period: 10177    Time step:     1
    Solving:  Stress period: 10178    Time step:     1
    Solving:  Stress period: 10179    Time step:     1
    Solving:  Stress period: 10180    Time step:     1
    Solving:  Stress period: 10181    Time step:     1
    Solving:  Stress period: 10182    Time step:     1
    Solving:  Stress period: 10183    Time step:     1
    Solving:  Stress period: 10184    Time step:     1
    Solving:  Stress period: 10185    Time step:     1
    Solving:  Stress period: 10186    Time step:     1
    Solving:  Stress period: 10187    Time step:     1
    Solving:  Stress period: 10188    Time step:     1
    Solving:  Stress period: 10189    Time step:     1
    Solving:  Stress period: 10190    Time step:     1
    Solving:  Stress period: 10191    Time step:     1
    Solving:  Stress period: 10192    Time step:     1
    Solving:  Stress period: 10193    Time step:     1
    Solving:  Stress period: 10194    Time step:     1
    Solving:  Stress period: 10195    Time step:     1
    Solving:  Stress period: 10196    Time step:     1
    Solving:  Stress period: 10197    Time step:     1
    Solving:  Stress period: 10198    Time step:     1
    Solving:  Stress period: 10199    Time step:     1
    Solving:  Stress period: 10200    Time step:     1
    Solving:  Stress period: 10201    Time step:     1
    Solving:  Stress period: 10202    Time step:     1
    Solving:  Stress period: 10203    Time step:     1
    Solving:  Stress period: 10204    Time step:     1
    Solving:  Stress period: 10205    Time step:     1
    Solving:  Stress period: 10206    Time step:     1
    Solving:  Stress period: 10207    Time step:     1
    Solving:  Stress period: 10208    Time step:     1
    Solving:  Stress period: 10209    Time step:     1
    Solving:  Stress period: 10210    Time step:     1
    Solving:  Stress period: 10211    Time step:     1
    Solving:  Stress period: 10212    Time step:     1
    Solving:  Stress period: 10213    Time step:     1
    Solving:  Stress period: 10214    Time step:     1
    Solving:  Stress period: 10215    Time step:     1
    Solving:  Stress period: 10216    Time step:     1
    Solving:  Stress period: 10217    Time step:     1
    Solving:  Stress period: 10218    Time step:     1
    Solving:  Stress period: 10219    Time step:     1
    Solving:  Stress period: 10220    Time step:     1
    Solving:  Stress period: 10221    Time step:     1
    Solving:  Stress period: 10222    Time step:     1
    Solving:  Stress period: 10223    Time step:     1
    Solving:  Stress period: 10224    Time step:     1
    Solving:  Stress period: 10225    Time step:     1
    Solving:  Stress period: 10226    Time step:     1
    Solving:  Stress period: 10227    Time step:     1
 
 Run end date and time (yyyy/mm/dd hh:mm:ss): 2022/10/30  2:35:15
 Elapsed run time:   1 Days, 13 Hours, 53 Minutes,  5 Seconds
 
 Normal termination of simulation.
